<div id="stitle" style="display:none;">Notebook Entry</div>
<dl id="sa0361a"> <dt class="nbunit"><a name="sa" href="#sa0361a">SA (VI.A) </a>: <a href="../../FF/fnbs/ssaall.htm#sa0361a"> 361(a)</a></dt> <dd> <blockquote> TELEMACHOS</blockquote> </dl>
